
 *******************************************************************************

         NASA-GLENN CHEMICAL EQUILIBRIUM PROGRAM CEA2, MAY 21, 2004
                   BY  BONNIE MCBRIDE AND SANFORD GORDON
      REFS: NASA RP-1311, PART I, 1994 AND NASA RP-1311, PART II, 1996

 *******************************************************************************



 problem
     rocket equilibrium
     p,psia=385.929557
     supar=10.000000
     phi=1.020000
 reac
     oxid Air wt=100
     fuel H2 wt=100
 output short
 only
 end





              THEORETICAL ROCKET PERFORMANCE ASSUMING EQUILIBRIUM

           COMPOSITION DURING EXPANSION FROM INFINITE AREA COMBUSTOR

 Pin =   385.9 PSIA
 CASE =                

             REACTANT                    WT FRACTION      ENERGY      TEMP
                                          (SEE NOTE)     KJ/KG-MOL      K  
 OXIDANT     Air                          1.0000000         0.000      0.000
 FUEL        H2                           1.0000000         0.000      0.000

 O/F=   33.62375  %FUEL=  2.888191  R,EQ.RATIO= 1.019970  PHI,EQ.RATIO= 1.020000

                 CHAMBER   THROAT     EXIT
 Pinf/P            1.0000   1.7898   98.239
 P, BAR            26.609   14.867  0.27086
 T, K             2467.52  2228.84   949.36
 RHO, KG/CU M    3.1660 0 1.9627 0 8.4039-2
 H, KJ/KG         0.00000  -464.96 -2536.17
 U, KJ/KG         -840.46 -1222.42 -2858.47
 G, KJ/KG        -24585.0 -22671.9 -11995.0
 S, KJ/(KG)(K)     9.9634   9.9634   9.9634

 M, (1/n)          24.411   24.466   24.491
 (dLV/dLP)t      -1.00153 -1.00055 -1.00000
 (dLV/dLT)p        1.0411   1.0166   1.0000
 Cp, KJ/(KG)(K)    2.1249   1.8880   1.4344
 GAMMAs            1.2080   1.2277   1.3101
 SON VEL,M/SEC     1007.6    964.3    649.8
 MACH NUMBER        0.000    1.000    3.466

 PERFORMANCE PARAMETERS

 Ae/At                      1.0000   10.000
 CSTAR, M/SEC               1405.9   1405.9
 CF                         0.6859   1.6020
 Ivac, M/SEC                1749.8   2395.3
 Isp, M/SEC                  964.3   2252.2


 MOLE FRACTIONS

 *Ar              0.00766  0.00768  0.00769
 *CO              0.00004  0.00003  0.00000
 *CO2             0.00022  0.00023  0.00026
 *H               0.00045  0.00016  0.00000
 *H2              0.01116  0.00814  0.00688
 H2O              0.33687  0.34178  0.34401
 *NO              0.00126  0.00039  0.00000
 *N2              0.63842  0.64030  0.64116
 *O               0.00007  0.00001  0.00000
 *OH              0.00296  0.00106  0.00000
 *O2              0.00088  0.00022  0.00000

  * THERMODYNAMIC PROPERTIES FITTED TO 20000.K

 NOTE. WEIGHT FRACTION OF FUEL IN TOTAL FUELS AND OF OXIDANT IN TOTAL OXIDANTS



