
 *******************************************************************************

         NASA-GLENN CHEMICAL EQUILIBRIUM PROGRAM CEA2, MAY 21, 2004
                   BY  BONNIE MCBRIDE AND SANFORD GORDON
      REFS: NASA RP-1311, PART I, 1994 AND NASA RP-1311, PART II, 1996

 *******************************************************************************



 problem
     rocket equilibrium
     p,psia=378.357421
     supar=10.000000
     phi=0.900000
 reac
     oxid Air wt=100
     fuel H2 wt=100
 output short
 only
 end





              THEORETICAL ROCKET PERFORMANCE ASSUMING EQUILIBRIUM

           COMPOSITION DURING EXPANSION FROM INFINITE AREA COMBUSTOR

 Pin =   378.4 PSIA
 CASE =                

             REACTANT                    WT FRACTION      ENERGY      TEMP
                                          (SEE NOTE)     KJ/KG-MOL      K  
 OXIDANT     Air                          1.0000000         0.000      0.000
 FUEL        H2                           1.0000000         0.000      0.000

 O/F=   38.10692  %FUEL=  2.557092  R,EQ.RATIO= 0.900152  PHI,EQ.RATIO= 0.900000

                 CHAMBER   THROAT     EXIT
 Pinf/P            1.0000   1.7960   100.08
 P, BAR            26.087   14.525  0.26065
 T, K             2338.83  2097.34   874.87
 RHO, KG/CU M    3.3492 0 2.0818 0 8.9619-2
 H, KJ/KG        -0.00001  -432.08 -2331.56
 U, KJ/KG         -778.88 -1129.79 -2622.41
 G, KJ/KG        -22658.2 -20750.7 -10807.1
 S, KJ/(KG)(K)     9.6878   9.6878   9.6878

 M, (1/n)          24.967   24.994   25.010
 (dLV/dLP)t      -1.00064 -1.00023 -1.00000
 (dLV/dLT)p        1.0182   1.0073   1.0000
 Cp, KJ/(KG)(K)    1.8794   1.7502   1.3733
 GAMMAs            1.2241   1.2386   1.3194
 SON VEL,M/SEC      976.4    929.6    619.5
 MACH NUMBER        0.000    1.000    3.486

 PERFORMANCE PARAMETERS

 Ae/At                      1.0000   10.000
 CSTAR, M/SEC               1348.0   1348.0
 CF                         0.6896   1.6020
 Ivac, M/SEC                1680.1   2294.1
 Isp, M/SEC                  929.6   2159.4


 MOLE FRACTIONS

 *Ar              0.00787  0.00787  0.00788
 *CO              0.00001  0.00000  0.00000
 *CO2             0.00026  0.00027  0.00027
 *H               0.00008  0.00002  0.00000
 HO2              0.00001  0.00000  0.00000
 *H2              0.00129  0.00038  0.00000
 H2O              0.31346  0.31578  0.31725
 *NO              0.00416  0.00250  0.00000
 NO2              0.00001  0.00000  0.00000
 *N2              0.65376  0.65530  0.65698
 *O               0.00015  0.00005  0.00000
 *OH              0.00381  0.00174  0.00000
 *O2              0.01514  0.01610  0.01762

  * THERMODYNAMIC PROPERTIES FITTED TO 20000.K

 NOTE. WEIGHT FRACTION OF FUEL IN TOTAL FUELS AND OF OXIDANT IN TOTAL OXIDANTS



