
 *******************************************************************************

         NASA-GLENN CHEMICAL EQUILIBRIUM PROGRAM CEA2, MAY 21, 2004
                   BY  BONNIE MCBRIDE AND SANFORD GORDON
      REFS: NASA RP-1311, PART I, 1994 AND NASA RP-1311, PART II, 1996

 *******************************************************************************



 problem
     rocket equilibrium
     p,psia=0.228234
     supar=10.000000
     phi=0.900000
 reac
     oxid Air wt=100
     fuel H2 wt=100
 output short
 only
 end





              THEORETICAL ROCKET PERFORMANCE ASSUMING EQUILIBRIUM

           COMPOSITION DURING EXPANSION FROM INFINITE AREA COMBUSTOR

 Pin =     0.2 PSIA
 CASE =                

             REACTANT                    WT FRACTION      ENERGY      TEMP
                                          (SEE NOTE)     KJ/KG-MOL      K  
 OXIDANT     Air                          1.0000000         0.000      0.000
 FUEL        H2                           1.0000000         0.000      0.000

 O/F=   38.10692  %FUEL=  2.557092  R,EQ.RATIO= 0.900152  PHI,EQ.RATIO= 0.900000

                 CHAMBER   THROAT     EXIT
 Pinf/P            1.0000   1.7530   96.696
 P, BAR           0.01574  0.00898  0.00016
 T, K             2166.90  2024.60   893.10
 RHO, KG/CU M    2.1507-3 1.3230-3 5.4811-5
 H, KJ/KG        -0.00014  -395.92 -2306.47
 U, KJ/KG         -731.68 -1074.44 -2603.38
 G, KJ/KG        -26369.6 -25033.9 -13174.8
 S, KJ/(KG)(K)    12.1693  12.1693  12.1693

 M, (1/n)          24.624   24.809   25.010
 (dLV/dLP)t      -1.00709 -1.00366 -1.00000
 (dLV/dLT)p        1.2016   1.1122   1.0000
 Cp, KJ/(KG)(K)    3.6359   2.8248   1.3795
 GAMMAs            1.1455   1.1670   1.3175
 SON VEL,M/SEC      915.5    889.9    625.4
 MACH NUMBER        0.000    1.000    3.434

 PERFORMANCE PARAMETERS

 Ae/At                      1.0000   10.000
 CSTAR, M/SEC               1336.7   1336.7
 CF                         0.6657   1.6068
 Ivac, M/SEC                1652.4   2286.0
 Isp, M/SEC                  889.8   2147.8


 MOLE FRACTIONS

 *Ar              0.00776  0.00782  0.00788
 *CO              0.00006  0.00003  0.00000
 *CO2             0.00021  0.00024  0.00027
 *H               0.00456  0.00183  0.00000
 *H2              0.01504  0.00814  0.00000
 H2O              0.28854  0.30165  0.31725
 *NO              0.00326  0.00220  0.00000
 *N2              0.64520  0.65060  0.65698
 *O               0.00246  0.00115  0.00000
 *OH              0.01298  0.00799  0.00000
 *O2              0.01994  0.01835  0.01762

  * THERMODYNAMIC PROPERTIES FITTED TO 20000.K

 NOTE. WEIGHT FRACTION OF FUEL IN TOTAL FUELS AND OF OXIDANT IN TOTAL OXIDANTS



